REMARK SMILES C[C@H](CS)C(=O)N1CCC[C@H]1C(=O)O
REMARK SMILES IDX 5 1 6 2 2 3 1 4 3 5 4 6 7 8 8 9 11 10 9 11 10 12 12 13 13 14
REMARK SMILES IDX 14 15
REMARK H PARENT 4 7 14 16
REMARK Flexibility Score: inf
ROOT
ATOM      1  C   UNL A   1       3.416   1.159  -0.739  1.00  0.00     0.226 C 
ATOM      2  O   UNL A   1       2.713   2.160  -0.710  1.00  0.00    -0.275 OA
ENDROOT
BRANCH   1   3
ATOM      3  C   UNL A   1       2.801  -0.168  -0.304  1.00  0.00     0.085 C 
ATOM      4  C   UNL A   1       1.598  -0.512  -1.192  1.00  0.00     0.019 C 
BRANCH   3   5
ATOM      5  C   UNL A   1       2.425  -0.160   1.193  1.00  0.00     0.079 C 
BRANCH   5   6
ATOM      6  S   UNL A   1       1.155   1.073   1.645  1.00  0.00    -0.179 SA
ATOM      7  H   UNL A   1       0.090   0.178   1.427  1.00  0.00     0.102 HD
ENDBRANCH   5   6
ENDBRANCH   3   5
ENDBRANCH   1   3
BRANCH   1   8
ATOM      8  N   UNL A   1       4.717   1.265  -1.162  1.00  0.00    -0.329 N 
ATOM      9  C   UNL A   1       5.687   0.189  -1.121  1.00  0.00     0.120 C 
ATOM     10  C   UNL A   1       5.339   2.516  -1.580  1.00  0.00     0.195 C 
ATOM     11  C   UNL A   1       7.024   0.924  -1.115  1.00  0.00     0.024 C 
ATOM     12  C   UNL A   1       6.741   2.087  -2.032  1.00  0.00     0.039 C 
BRANCH  10  13
ATOM     13  C   UNL A   1       4.653   3.237  -2.730  1.00  0.00     0.326 C 
ATOM     14  O   UNL A   1       5.089   4.322  -3.082  1.00  0.00    -0.250 OA
BRANCH  13  15
ATOM     15  O   UNL A   1       3.608   2.711  -3.408  1.00  0.00    -0.480 OA
ATOM     16  H   UNL A   1       3.260   1.825  -3.248  1.00  0.00     0.296 HD
ENDBRANCH  13  15
ENDBRANCH  10  13
ENDBRANCH   1   8
TORSDOF 6
