SIM
 OpenBabel12152415213D

 29 29  0  0  1  0  0  0  0  0999 V2000
    1.5981   -0.5125   -1.1921 C   0  0  0  0  0  0  0  0  0  0  0  0
    2.8008   -0.1680   -0.3038 C   0  0  2  0  0  0  0  0  0  0  0  0
    2.4253   -0.1604    1.1927 C   0  0  0  0  0  0  0  0  0  0  0  0
    1.1548    1.0733    1.6453 S   0  0  0  0  0  0  0  0  0  0  0  0
    3.4158    1.1585   -0.7385 C   0  0  0  0  0  0  0  0  0  0  0  0
    2.7130    2.1601   -0.7101 O   0  0  0  0  0  0  0  0  0  0  0  0
    4.7171    1.2654   -1.1620 N   0  0  0  0  0  0  0  0  0  0  0  0
    5.6870    0.1885   -1.1213 C   0  0  0  0  0  0  0  0  0  0  0  0
    7.0241    0.9242   -1.1145 C   0  0  0  0  0  0  0  0  0  0  0  0
    6.7411    2.0875   -2.0320 C   0  0  0  0  0  0  0  0  0  0  0  0
    5.3391    2.5162   -1.5799 C   0  0  1  0  0  0  0  0  0  0  0  0
    4.6534    3.2374   -2.7300 C   0  0  0  0  0  0  0  0  0  0  0  0
    3.6081    2.7111   -3.4080 O   0  0  0  0  0  0  0  0  0  0  0  0
    5.0889    4.3223   -3.0820 O   0  0  0  0  0  0  0  0  0  0  0  0
    1.9195   -0.5785   -2.2537 H   0  0  0  0  0  0  0  0  0  0  0  0
    0.8033    0.2592   -1.1140 H   0  0  0  0  0  0  0  0  0  0  0  0
    1.1719   -1.4945   -0.8952 H   0  0  0  0  0  0  0  0  0  0  0  0
    3.5264   -0.9937   -0.4365 H   0  0  0  0  0  0  0  0  0  0  0  0
    2.0588   -1.1642    1.4981 H   0  0  0  0  0  0  0  0  0  0  0  0
    3.3295    0.0312    1.8090 H   0  0  0  0  0  0  0  0  0  0  0  0
    0.0896    0.1784    1.4269 H   0  0  0  0  0  0  0  0  0  0  0  0
    5.5526   -0.4479   -2.0233 H   0  0  0  0  0  0  0  0  0  0  0  0
    5.6415   -0.4153   -0.1895 H   0  0  0  0  0  0  0  0  0  0  0  0
    7.8973    0.2962   -1.3907 H   0  0  0  0  0  0  0  0  0  0  0  0
    7.1905    1.3435   -0.0952 H   0  0  0  0  0  0  0  0  0  0  0  0
    6.6811    1.6605   -3.0611 H   0  0  0  0  0  0  0  0  0  0  0  0
    7.4984    2.9002   -2.0278 H   0  0  0  0  0  0  0  0  0  0  0  0
    5.3749    3.1781   -0.6857 H   0  0  0  0  0  0  0  0  0  0  0  0
    3.2600    1.8251   -3.2480 H   0  0  0  0  0  0  0  0  0  0  0  0
  1 15  1  0  0  0  0
  1 16  1  0  0  0  0
  1 17  1  0  0  0  0
  2  5  1  0  0  0  0
  2  3  1  0  0  0  0
  2  1  1  0  0  0  0
  2 18  1  6  0  0  0
  3  4  1  0  0  0  0
  3 19  1  0  0  0  0
  3 20  1  0  0  0  0
  4 21  1  0  0  0  0
  5  6  2  0  0  0  0
  5  7  1  0  0  0  0
  7  8  1  0  0  0  0
  7 11  1  0  0  0  0
  8  9  1  0  0  0  0
  8 22  1  0  0  0  0
  8 23  1  0  0  0  0
  9 10  1  0  0  0  0
  9 24  1  0  0  0  0
  9 25  1  0  0  0  0
 10 11  1  0  0  0  0
 10 26  1  0  0  0  0
 10 27  1  0  0  0  0
 11 12  1  0  0  0  0
 11 28  1  1  0  0  0
 12 13  1  0  0  0  0
 12 14  2  0  0  0  0
 13 29  1  0  0  0  0
M  END
>  <Energy>
229.759

$$$$
